psse/psse-converter/src/test/resources/RawCaseWithSpecialCharacters_exported.raw
0,100.0,33,0.0,0.0,60.0


1,'Bus1\!@     ',18.0,2,1,1,1,1.04,-6.5957,1.1,0.9,1.1,0.9
2,'Bus2#$%     ',18.0,2,1,1,1,1.04,-6.5957,1.1,0.9,1.1,0.9
3,'Bus3&/(     ',18.0,2,1,1,1,1.02,-37.1199,1.1,0.9,1.1,0.9
4,'Bus4)=?     ',500.0,1,1,1,1,1.01691,-11.4772,1.1,0.9,1.1,0.9
5,'Bus5¿¡{     ',500.0,1,1,1,1,0.97278,-42.3008,1.1,0.9,1.1,0.9
6,'Bus6}[]     ',500.0,3,1,1,1,1.0,-57.1678,1.1,0.9,1.1,0.9
7,'Bus7<>:     ',16.0,2,1,1,1,1.0,0.0,1.1,0.9,1.1,0.9
0 / END OF BUS DATA, BEGIN LOAD DATA
4,'1 ',1,1,1,1400.0,100.0,0.0,0.0,0.0,0.0,1,1
5,'1 ',1,1,1,2000.0,100.0,0.0,0.0,0.0,0.0,1,1
5,'2 ',0,1,1,0.0,50.0,0.0,0.0,0.0,0.0,1,1
6,'1 ',1,1,1,10000.0,2000.0,0.0,0.0,0.0,0.0,1,1
7,'1 ',1,1,1,1.0,1.0,0.0,0.0,0.0,0.0,1,1
0 / END OF LOAD DATA, BEGIN FIXED SHUNT DATA
0 / END OF FIXED SHUNT DATA, BEGIN GENERATOR DATA
1,'1 ',1404.0,434.409,9900.0,-9900.0,1.04,0,1560.0,0.0019,0.29,0.0,0.0,1.0,1,100.0,1560.0,0.0,1,1.0,0,1.0,0,1.0,0,1.0,0,1.0
2,'1 ',1404.0,434.409,9900.0,-9900.0,1.04,0,1560.0,0.0019,0.29,0.0,0.0,1.0,1,100.0,1560.0,0.0,1,1.0,0,1.0,0,1.0,0,1.0,0,1.0
3,'1 ',800.0,466.25,9900.0,-9900.0,1.02,0,890.0,0.0,0.337,0.0,0.0,1.0,1,100.0,890.0,0.0,1,1.0,0,1.0,0,1.0,0,1.0,0,1.0
6,'1 ',9792.007,2049.823,9900.0,-9900.0,1.0,0,100000.0,0.0,0.2,0.0,0.0,1.0,1,100.0,20000.0,0.0,1,1.0,0,1.0,0,1.0,0,1.0,0,1.0
0 / END OF GENERATOR DATA, BEGIN BRANCH DATA
4,5,'1 ',0.0,0.036,0.0,10451.0,10452.0,10453.0,0.0,0.0,0.0,0.0,1,1,0.0,1,1.0,0,1.0,0,1.0,0,1.0
5,6,'1 ',0.0,0.12,0.0,10561.0,10562.0,10563.0,0.0,0.0,0.0,0.0,1,1,0.0,1,1.0,0,1.0,0,1.0,0,1.0
0 / END OF BRANCH DATA, BEGIN TRANSFORMER DATA
1,4,0,'1 ',1,1,1,0.0,0.0,2,'            ',1,1,1.0,0,1.0,0,1.0,0,1.0,'            '
0.0,0.00641,100.0
1.0,18.0,0.0,10140.0,10141.0,10142.0,0,0,1.5,0.51,1.5,0.51,22,0,0.0,0.0,0.0
1.0,500.0
4,2,7,'1 ',2,3,2,144572.0,4.1E-4,2,'AEPTM1T     ',1,1,1.0,0,1.0,0,1.0,0,1.0,'            '
334279.0,0.13432,440.0,262298.0,0.20807,280.0,1515.0,0.10652,160.0,0.98627,-10.1187
500.0,500.0,0.0,101.0,102.0,103.0,0,0,444.0,356.0,1.1,0.9,22,0,0.0,0.0,0.0
18.237,18.0,0.0,201.0,202.0,203.0,0,0,1.1,0.9,1.1,0.9,1,0,0.0,0.0,0.0
15.998,15.998,0.0,301.0,302.0,303.0,0,0,1.1,0.9,1.1,0.9,1,0,0.0,0.0,0.0
3,5,0,'1 ',1,1,1,0.0,0.0,2,'            ',1,1,1.0,0,1.0,0,1.0,0,1.0,'            '
0.0,0.0112,100.0
1.0,18.0,0.0,10000.0,0.0,0.0,1,3,1.05,0.95,1.1,0.95,22,0,0.0,0.0,0.0
1.0,18.0
0 / END OF TRANSFORMER DATA, BEGIN AREA DATA
1,0,0.0,1.0,'1           '
0 / END OF AREA DATA, BEGIN TWO-TERMINAL DC DATA
0 / END OF TWO-TERMINAL DC DATA, BEGIN VOLTAGE SOURCE CONVERTER DATA
0 / END OF VOLTAGE SOURCE CONVERTER DATA, BEGIN IMPEDANCE CORRECTION DATA
0 / END OF IMPEDANCE CORRECTION DATA, BEGIN MULTI-TERMINAL DC DATA
0 / END OF MULTI-TERMINAL DC DATA, BEGIN MULTI-SECTION LINE DATA
0 / END OF MULTI-SECTION LINE DATA, BEGIN ZONE DATA
1,'1       '
0 / END OF ZONE DATA, BEGIN INTER-AREA TRANSFER DATA
0 / END OF INTER-AREA TRANSFER DATA, BEGIN OWNER DATA
1,'1'
0 / END OF OWNER DATA, BEGIN FACTS CONTROL DEVICE DATA
0 / END OF FACTS CONTROL DEVICE DATA, BEGIN SWITCHED SHUNT DATA
0 / END OF SWITCHED SHUNT DATA, BEGIN GNE DEVICE DATA
0 / END OF GNE DEVICE DATA, BEGIN INDUCTION MACHINE DATA
0 / END OF INDUCTION MACHINE DATA
Q
